[TITLE]
Scenario: Base 
Date: 1/14/2021 2:25:12 PM 

[JUNCTIONS]
 J-6                                   0.0000
 J-7                                   0.0000
 J-2                                   0.0000
 J-3                                   0.0000
 J-12                                  0.0000
 J-11                                  0.0000
 J-10                                  0.0000
 J-13                                  0.0000
 J-4                                   0.0000
 J-5                                   0.0000
 J-9                                   0.0000
 J-22                                  0.0000
 J-21                                  0.0000
 J-16                                  0.0000
 J-17                                  0.0000
 J-15                                  0.0000
 J-25                                  0.0000
 J-24                                  0.0000
 J-23                                  0.0000
 J-18                                  0.0000
 J-19                                  0.0000
 J-14                                  0.0000
 J-8                                   0.0000
 J-20                                  0.0000
 J-30                                  0.0000
 J-31                                  0.0000
 J-27                                  0.0000
 J-28                                  0.0000
 J-29                                  0.0000
 J-26                                  0.0000

[RESERVOIRS]
 R-1                                 128.5000                                

[TANKS]

[PIPES]
 P6                              J-6                             J-7                                1000.0000     300.0000     130.0000       0.0000       
 P2                              J-2                             J-3                                1000.0000     600.0000     130.0000       0.0000       
 P16                             J-12                            J-11                               1000.0000     300.0000     130.0000       0.0000       
 P15                             J-11                            J-10                               1000.0000     450.0000     130.0000       0.0000       
 P17                             J-13                            J-12                               1000.0000     300.0000     130.0000       0.0000       
 P4                              J-4                             J-5                                1000.0000     450.0000     130.0000       0.0000       
 P5                              J-5                             J-6                                1000.0000     450.0000     130.0000       0.0000       
 P14                             J-10                            J-9                                1000.0000     450.0000     130.0000       0.0000       
 P3                              J-3                             J-4                                1000.0000     600.0000     130.0000       0.0000       
 P36                             J-22                            J-21                               1000.0000     300.0000     130.0000       0.0000       
 P26                             J-16                            J-17                               1000.0000     300.0000     130.0000       0.0000       
 P25                             J-15                            J-16                               1000.0000     450.0000     130.0000       0.0000       
 P39                             J-25                            J-24                               1000.0000     300.0000     130.0000       0.0000       
 P37                             J-23                            J-22                               1000.0000     300.0000     130.0000       0.0000       
 P38                             J-24                            J-23                               1000.0000     300.0000     130.0000       0.0000       
 P28                             J-18                            J-19                               1000.0000     300.0000     130.0000       0.0000       
 P27                             J-17                            J-18                               1000.0000     300.0000     130.0000       0.0000       
 P24                             J-15                            J-14                               1000.0000     450.0000     130.0000       0.0000       
 P13                             J-9                             J-8                                1000.0000     600.0000     130.0000       0.0000       
 P35                             J-21                            J-20                               1000.0000     450.0000     130.0000       0.0000       
 P50                             J-30                            J-31                               1000.0000     300.0000     130.0000       0.0000       
 P47                             J-27                            J-28                               1000.0000     300.0000     130.0000       0.0000       
 P48                             J-28                            J-29                               1000.0000     300.0000     130.0000       0.0000       
 P46                             J-26                            J-27                               1000.0000     300.0000     130.0000       0.0000       
 P49                             J-29                            J-30                               1000.0000     300.0000     130.0000       0.0000       
 P1                              R-1                             J-2                                1414.2136     600.0000     130.0000       0.0000       
 P7                              J-2                             J-8                                2000.0000     600.0000     130.0000       0.0000       
 P18                             J-8                             J-14                               2000.0000     600.0000     130.0000       0.0000       
 P23                             J-19                            J-13                               2000.0000     300.0000     130.0000       0.0000       
 P12                             J-13                            J-7                                2000.0000     300.0000     130.0000       0.0000       
 P20                             J-16                            J-10                               2000.0000     450.0000     130.0000       0.0000       
 P10                             J-11                            J-5                                2000.0000     450.0000     130.0000       0.0000       
 P11                             J-12                            J-6                                2000.0000     300.0000     130.0000       0.0000       
 P41                             J-21                            J-27                               2000.0000     300.0000     130.0000       0.0000       
 P43                             J-23                            J-29                               2000.0000     300.0000     130.0000       0.0000       
 P21                             J-17                            J-11                               2000.0000     300.0000     130.0000       0.0000       
 P22                             J-18                            J-12                               2000.0000     300.0000     130.0000       0.0000       
 P9                              J-10                            J-4                                2000.0000     450.0000     130.0000       0.0000       
 P30                             J-21                            J-15                               2000.0000     450.0000     130.0000       0.0000       
 P45                             J-31                            J-25                               2000.0000     300.0000     130.0000       0.0000       
 P8                              J-9                             J-3                                2000.0000     600.0000     130.0000       0.0000       
 P42                             J-22                            J-28                               2000.0000     300.0000     130.0000       0.0000       
 P31                             J-16                            J-22                               2000.0000     300.0000     130.0000       0.0000       
 P32                             J-17                            J-23                               2000.0000     300.0000     130.0000       0.0000       
 P33                             J-24                            J-18                               2000.0000     300.0000     130.0000       0.0000       
 P19                             J-15                            J-9                                2000.0000     450.0000     130.0000       0.0000       
 P44                             J-24                            J-30                               2000.0000     300.0000     130.0000       0.0000       
 P34                             J-19                            J-25                               2000.0000     300.0000     130.0000       0.0000       
 P29                             J-14                            J-20                               2000.0000     450.0000     130.0000       0.0000       
 P40                             J-20                            J-26                               2000.0000     450.0000     130.0000       0.0000       

[PUMPS]

[VALVES]

[DEMANDS]
 J-6                                  50.000000                                
 J-7                                  50.000000                                
 J-2                                  50.000000                                
 J-3                                  50.000000                                
 J-12                                 50.000000                                
 J-11                                 50.000000                                
 J-10                                 50.000000                                
 J-13                                 50.000000                                
 J-4                                  50.000000                                
 J-5                                  50.000000                                
 J-9                                  50.000000                                
 J-22                                 50.000000                                
 J-21                                 50.000000                                
 J-16                                 50.000000                                
 J-17                                 50.000000                                
 J-15                                 50.000000                                
 J-25                                 50.000000                                
 J-24                                 50.000000                                
 J-23                                 50.000000                                
 J-18                                 50.000000                                
 J-19                                 50.000000                                
 J-14                                 50.000000                                
 J-8                                  50.000000                                
 J-20                                 50.000000                                
 J-30                                 50.000000                                
 J-31                                 50.000000                                
 J-27                                 50.000000                                
 J-28                                 50.000000                                
 J-29                                 50.000000                                
 J-26                                 50.000000                                

[EMITTERS]

[STATUS]

[PATTERNS]

[CURVES]

[CONTROLS]

[RULES]

[QUALITY]

[SOURCES]

[MIXING]

[REACTIONS]
 ORDER  BULK            1.00
 ORDER  WALL            1
 ORDER  TANK            1.00
 GLOBAL BULK            0.000000
 GLOBAL WALL            0.000000

[ENERGY]
 GLOBAL EFFIC        75.0000
 DEMAND CHARGE       0.0000

[TIMES]
 DURATION            0:00:00
 HYDRAULIC TIMESTEP  1:00:00
 QUALITY TIMESTEP    0:06:00
 REPORT TIMESTEP     1:00:00
 REPORT START        0:00:00
 PATTERN TIMESTEP    1:00:00
 PATTERN START       0:00:00
 RULE TIMESTEP       0:06:00
 START CLOCKTIME     0:00:00
 STATISTIC           NONE

[OPTIONS]
 UNITS               LPS
 PRESSURE            METERS
 HEADLOSS            H-W
 UNBALANCED          STOP
 QUALITY             NONE
 DEMAND MULTIPLIER   1.0000
 EMITTER EXPONENT    0.5000
 VISCOSITY           0.982158
 DIFFUSIVITY         1.000000
 SPECIFIC GRAVITY    0.998000
 TRIALS              40
 ACCURACY            0.00100000
 TOLERANCE           0.01000000
 CHECKFREQ           2
 MAXCHECK            10
 DAMPLIMIT           0.00000000

[REPORT]
 PAGESIZE            0
 STATUS              NO
 SUMMARY             YES
 ENERGY              NO
 MESSAGES            YES
 NODES               NONE
 LINKS               NONE
 Elevation           NO
 Demand              PRECISION 2
 Head                PRECISION 2
 Pressure            PRECISION 2
 Quality             NO
 Length              NO
 Diameter            NO
 Flow                PRECISION 2
 Velocity            PRECISION 2
 Headloss            PRECISION 2
 Quality             NO
 State               NO
 Setting             NO
 Reaction            NO

[COORDINATES]
 J-6                                   0.000000    1000.000000
 J-7                                   0.000000       0.000000
 J-2                                   0.000000    5000.000000
 J-3                                   0.000000    4000.000000
 J-12                               2000.000000    1000.000000
 J-11                               2000.000000    2000.000000
 J-10                               2000.000000    3000.000000
 J-13                               2000.000000       0.000000
 J-4                                   0.000000    3000.000000
 J-5                                   0.000000    2000.000000
 J-9                                2000.000000    4000.000000
 J-22                               6000.000000    3000.000000
 J-21                               6000.000000    4000.000000
 J-16                               4000.000000    3000.000000
 J-17                               4000.000000    2000.000000
 J-15                               4000.000000    4000.000000
 J-25                               6000.000000       0.000000
 J-24                               6000.000000    1000.000000
 J-23                               6000.000000    2000.000000
 J-18                               4000.000000    1000.000000
 J-19                               4000.000000       0.000000
 J-14                               4000.000000    5000.000000
 J-8                                2000.000000    5000.000000
 J-20                               6000.000000    5000.000000
 J-30                               8000.000000    1000.000000
 J-31                               8000.000000       0.000000
 J-27                               8000.000000    4000.000000
 J-28                               8000.000000    3000.000000
 J-29                               8000.000000    2000.000000
 J-26                               8000.000000    5000.000000
 R-1                               -1000.000000    6000.000000

[VERTICES]

[END]
